<<<<<<< Updated upstream
Circuit: * G:\UdeS\S5\App2S6\app2depart.asc
=======
Circuit: * C:\Users\ldgau\OneDrive - USherbrooke\Uni\S6\APP2\PROB\App2S6\app2depart.asc
>>>>>>> Stashed changes

Instance "m:m2:1": Width narrower than recommended for a level 3 MOSFET.
Instance "m:m1:1": Width narrower than recommended for a level 3 MOSFET.
Direct Newton iteration failed to find .op point.  (Use ".option noopiter" to skip.)
Starting Gmin stepping
Increasing initial diagonal Gmin to 100
Gmin = 100
Gmin = 10.7374
vernier = 0.5
vernier = 0.25
vernier = 0.125
Gmin = 10.5488
vernier = 0.166667
vernier = 0.222222
Gmin = 6.80803
vernier = 0.296296
vernier = 0.395061
Gmin = 3.43138
vernier = 0.526748
Gmin = 1.15428
vernier = 0.702331
vernier = 0.936441
Gmin = 0.205591
vernier = 1
Gmin = 0.0229389
Gmin = 0.00246304
Gmin = 0.000264467
Gmin = 2.8397e-005
Gmin = 3.0491e-006
Gmin = 3.27395e-007
Gmin = 3.51537e-008
Gmin = 3.7746e-009
Gmin = 4.05295e-010
Gmin = 4.35182e-011
Gmin = 4.67273e-012
Gmin = 5.01731e-013
Gmin = 0
Gmin stepping succeeded in finding the operating point.


<<<<<<< Updated upstream
Date: Sat May 23 09:51:54 2020
Total elapsed time: 0.261 seconds.
=======
Date: Sat May 23 10:45:20 2020
Total elapsed time: 1.146 seconds.
>>>>>>> Stashed changes

tnom = 27
temp = 27
method = modified trap
<<<<<<< Updated upstream
totiter = 10590
traniter = 9345
tranpoints = 2799
accept = 2159
rejected = 640
matrix size = 100
fillins = 145
solver = Normal
Matrix Compiler1: 14.80 KB object code size  3.2/1.5/[0.6]
Matrix Compiler2: 11.44 KB object code size  1.2/1.6/[0.7]
=======
totiter = 85452
traniter = 84227
tranpoints = 23614
accept = 16916
rejected = 6698
matrix size = 100
fillins = 143
solver = Normal
Matrix Compiler1: 14.65 KB object code size  2.0/1.1/[0.6]
Matrix Compiler2: 11.41 KB object code size  1.2/5.2/[1.0]
>>>>>>> Stashed changes

