Circuit: * C:\Users\ldgau\OneDrive - USherbrooke\Uni\S6\APP2\PROB\App2S6\LT_CALIF_FET.asc

Instance "m:u1:1": Width narrower than recommended for a level 3 MOSFET.
Instance "m:m1:1": Width narrower than recommended for a level 3 MOSFET.

Date: Sat May 23 11:19:30 2020
Total elapsed time: 0.052 seconds.

tnom = 27
temp = 27
method = trap
totiter = 208
traniter = 0
tranpoints = 0
accept = 0
rejected = 0
matrix size = 26
fillins = 10
solver = Normal
Matrix Compiler1: 1.84 KB object code size  0.3/0.2/[0.1]
Matrix Compiler2: 2.20 KB object code size  0.1/0.2/[0.1]

