Circuit: * C:\Users\ldgau\OneDrive - USherbrooke\Uni\S6\APP2\PROB\App2S6\LT_CALIF_BJT.asc


Date: Sun May 24 12:09:43 2020
Total elapsed time: 0.116 seconds.

tnom = 27
temp = 27
method = trap
totiter = 407
traniter = 0
tranpoints = 0
accept = 0
rejected = 0
matrix size = 12
fillins = 0
solver = Normal
Matrix Compiler1: 606 bytes object code size  0.1/0.1/[0.1]
Matrix Compiler2: 968 bytes object code size  0.1/0.1/[0.1]

