Circuit: * C:\Users\ldgau\OneDrive - USherbrooke\Uni\S6\APP2\PROB\App2S6\LT_ETAGE_3_SIMPLIFIE.asc

Instance "m:m2:1": Width narrower than recommended for a level 3 MOSFET.
Instance "m:m1:1": Width narrower than recommended for a level 3 MOSFET.
Direct Newton iteration for .op point succeeded.

Date: Sun May 24 12:49:49 2020
Total elapsed time: 0.100 seconds.

tnom = 27
temp = 27
method = modified trap
totiter = 2462
traniter = 2450
tranpoints = 1054
accept = 1050
rejected = 4
matrix size = 35
fillins = 26
solver = Normal
Matrix Compiler1: 3.22 KB object code size  0.5/0.3/[0.1]
Matrix Compiler2: 3.25 KB object code size  0.2/0.3/[0.2]

